 CRYSTAL
 PRIMVEC
     5.75200000    0.00000000    0.00000000
     0.00000000    4.53780000    0.00000000
    -2.90357335    0.00000000    4.53217035
 PRIMCOORD
   12 1
    23   1.30060289    4.44223393    0.11992123
    23   1.54782377    0.09556607    4.41224912
    23  -0.15118378    2.36446607    2.38600640
    23   2.99961044    2.17333393    2.14616395
     8   0.00517700    0.96155982    0.94541073
     8   2.84324965    3.57624018    3.58675961
     8  -1.44660967    1.30734018    3.21149591
     8   4.29503633    3.23045982    1.32067444
     8   1.43608828    3.18825828    1.35421250
     8   1.41233837    1.34954172    3.17795785
     8  -0.01569839    3.61844172    3.62029768
     8   2.86412504    0.91935828    0.91187267
