 CRYSTAL
 PRIMVEC
    2.8598000000    0.0000000000    0.0000000000
    0.0000000000    2.8598000000    0.0000000000
    0.0000000000    0.0000000000    2.8598000000
 PRIMCOORD
           2  1
 26      0.0000000000     0.0000000000     0.0000000000
 26      1.4299000000     1.4299000000     1.4299000000
