 CRYSTAL
 PRIMVEC 
     1.78500000   1.78500000  -0.00000000
     0.00000000   1.78500000   1.78500000
     1.78500000   0.00000000   1.78500000
 PRIMCOORD 
   2 1
     6   0.00000000   0.00000000   0.00000000
     6   0.89250000   0.89250000   0.89250000
 BEGIN_BLOCK_DATAGRID_3D
   density
   BEGIN_DATAGRID_3D_density
     4 4 4
     0.59500000   0.59500000   0.59500000
     1.78500000   1.78500000  -0.00000000
     0.00000000   1.78500000   1.78500000
     1.78500000   0.00000000   1.78500000
       0.63867611   0.54475540   0.48235484   0.63867611
       0.54197318   0.21635123   0.21219650   0.54197318
       0.48022796   0.21284558   0.41266169   0.48022796
       0.63867611   0.54475540   0.48235484   0.63867611
       0.55212025   0.21736421   0.19939132   0.55212025
       0.21639583   0.06805520   0.16453599   0.21639583
       0.19752374   0.16344029   0.13302420   0.19752374
       0.55212025   0.21736421   0.19939132   0.55212025
       0.45414481   0.20815995   0.41541769   0.45414481
       0.20822307   0.16592833   0.13260336   0.20822307
       0.41470324   0.13366013   0.17517643   0.41470324
       0.45414481   0.20815995   0.41541769   0.45414481
       0.63867611   0.54475540   0.48235484   0.63867611
       0.54197318   0.21635123   0.21219650   0.54197318
       0.48022796   0.21284558   0.41266169   0.48022796
       0.63867611   0.54475540   0.48235484   0.63867611
   END_DATAGRID_3D_density
 END_BLOCK_DATAGRID_3D
